REMARK  7 active torsions:
REMARK  status: ('A' for Active; 'I' for Inactive)
REMARK    1  A    between atoms: C3_4  and  C4_5 
REMARK    2  A    between atoms: C7_8  and  S1_9 
REMARK    3  A    between atoms: S1_9  and  N2_12 
REMARK    4  A    between atoms: C10_15  and  C11_16 
REMARK    5  A    between atoms: C12_17  and  C13_18 
REMARK       I    between atoms: C13_18  and  N3_20 
REMARK    6  A    between atoms: N3_20  and  C14_21 
REMARK    7  A    between atoms: C19_26  and  N4_27 
ROOT
HETATM    1  N2  UNL     1       0.720  -3.277  -0.169  1.00  0.00    -0.257 N 
HETATM    2  C8  UNL     1       0.904  -3.724   1.113  1.00  0.00     0.109 A 
HETATM    3  C9  UNL     1      -0.120  -3.199   1.875  1.00  0.00     0.031 A 
HETATM    4  C10 UNL     1      -0.923  -2.390   1.022  1.00  0.00    -0.018 A 
HETATM    5  C20 UNL     1      -0.363  -2.438  -0.239  1.00  0.00     0.120 A 
ENDROOT
BRANCH   1   6
HETATM    6  S1  UNL     1       1.833  -3.514  -1.434  1.00  0.00     0.268 S 
HETATM    7  O1  UNL     1       1.111  -3.225  -2.659  1.00  0.00    -0.200 OA
HETATM    8  O2  UNL     1       2.451  -4.801  -1.179  1.00  0.00    -0.200 OA
BRANCH   6   9
HETATM    9  C7  UNL     1       3.030  -2.236  -1.164  1.00  0.00     0.080 A 
HETATM   10  C6  UNL     1       4.199  -2.519  -0.455  1.00  0.00     0.026 A 
HETATM   11  C5  UNL     1       5.140  -1.507  -0.247  1.00  0.00     0.014 A 
HETATM   12  C4  UNL     1       4.926  -0.213  -0.747  1.00  0.00    -0.023 A 
HETATM   13  C22 UNL     1       3.752   0.047  -1.471  1.00  0.00     0.014 A 
HETATM   14  C21 UNL     1       2.806  -0.960  -1.685  1.00  0.00     0.026 A 
BRANCH  12  15
HETATM   15  C3  UNL     1       5.916   0.826  -0.525  1.00  0.00     0.010 A 
HETATM   16  C2  UNL     1       5.647   2.176  -0.414  1.00  0.00     0.125 A 
HETATM   17  N1  UNL     1       6.846   2.791  -0.192  1.00  0.00    -0.285 N 
HETATM   18  C1  UNL     1       7.077   4.202  -0.006  1.00  0.00     0.179 C 
HETATM   19  N5  UNL     1       7.885   1.939  -0.148  1.00  0.00    -0.185 NA
HETATM   20  C23 UNL     1       7.318   0.746  -0.348  1.00  0.00     0.152 A 
ENDBRANCH  12  15
ENDBRANCH   6   9
ENDBRANCH   1   6
BRANCH   4  21
HETATM   21  C11 UNL     1      -2.082  -1.658   1.420  1.00  0.00     0.018 C 
HETATM   22  C12 UNL     1      -2.908  -0.982   0.605  1.00  0.00     0.075 C 
BRANCH  22  23
HETATM   23  C13 UNL     1      -4.085  -0.263   1.169  1.00  0.00     0.245 C 
HETATM   24  O3  UNL     1      -4.288  -0.230   2.376  1.00  0.00    -0.268 OA
HETATM   25  N3  UNL     1      -4.844   0.320   0.183  1.00  0.00    -0.322 N 
HETATM   26  H11 UNL     1      -4.574   0.216  -0.790  1.00  0.00     0.169 HD
BRANCH  25  27
HETATM   27  C14 UNL     1      -6.044   1.049   0.325  1.00  0.00     0.056 A 
HETATM   28  C15 UNL     1      -6.690   1.275   1.541  1.00  0.00     0.031 A 
HETATM   29  C16 UNL     1      -7.876   2.013   1.575  1.00  0.00     0.002 A 
HETATM   30  C17 UNL     1      -8.412   2.537   0.400  1.00  0.00     0.002 A 
HETATM   31  C18 UNL     1      -7.769   2.320  -0.819  1.00  0.00     0.025 A 
HETATM   32  C19 UNL     1      -6.607   1.544  -0.872  1.00  0.00     0.033 A 
BRANCH  32  33
HETATM   33  N4  UNL     1      -5.865   1.457  -2.083  1.00  0.00    -0.301 NA
HETATM   34  H16 UNL     1      -6.483   1.549  -2.888  1.00  0.00     0.124 HD
HETATM   35  H17 UNL     1      -5.194   2.226  -2.106  1.00  0.00     0.124 HD
ENDBRANCH  32  33
ENDBRANCH  25  27
ENDBRANCH  22  23
ENDBRANCH   4  21
TORSDOF 7
