REMARK  5 active torsions:
REMARK  status: ('A' for Active; 'I' for Inactive)
REMARK    1  A    between atoms: C3_4  and  C4_5 
REMARK    2  A    between atoms: C10_13  and  C11_14 
REMARK    3  A    between atoms: N5_17  and  C13_18 
REMARK    4  A    between atoms: C13_18  and  C16_21 
REMARK       I    between atoms: C16_21  and  N6_22 
REMARK    5  A    between atoms: N7_30  and  C22_31 
ROOT
HETATM    1  C4  UNL     1      -3.811   0.090   0.092  1.00  0.00     0.122 A 
HETATM    2  C5  UNL     1      -3.665   0.365   1.429  1.00  0.00     0.128 A 
HETATM    3  N2  UNL     1      -2.308   0.374   1.653  1.00  0.00    -0.337 N 
HETATM    4  C6  UNL     1      -1.661   0.145   0.460  1.00  0.00     0.143 A 
HETATM    5  N3  UNL     1      -2.573  -0.024  -0.488  1.00  0.00    -0.225 NA
HETATM    6  C7  UNL     1      -0.207   0.080   0.219  1.00  0.00     0.043 A 
HETATM    7  C8  UNL     1       0.206  -0.075  -1.122  1.00  0.00     0.019 A 
HETATM    8  C9  UNL     1       1.553  -0.119  -1.495  1.00  0.00     0.013 A 
HETATM    9  C10 UNL     1       2.553  -0.007  -0.534  1.00  0.00    -0.020 A 
HETATM   10  C18 UNL     1       2.158   0.153   0.800  1.00  0.00     0.050 A 
HETATM   11  C19 UNL     1       0.804   0.182   1.182  1.00  0.00     0.083 A 
HETATM   12  O2  UNL     1       0.654   0.355   2.533  1.00  0.00    -0.348 OA
HETATM   13  C20 UNL     1      -0.465  -0.297   3.120  1.00  0.00     0.196 C 
HETATM   14  C21 UNL     1      -1.701   0.557   2.954  1.00  0.00     0.156 C 
ENDROOT
BRANCH   9  15
HETATM   15  C11 UNL     1       3.955  -0.092  -0.917  1.00  0.00     0.011 A 
HETATM   16  C12 UNL     1       4.558  -0.495  -2.131  1.00  0.00     0.152 A 
HETATM   17  N4  UNL     1       5.892  -0.457  -2.094  1.00  0.00    -0.183 NA
HETATM   18  N5  UNL     1       6.171  -0.045  -0.835  1.00  0.00    -0.262 N 
HETATM   19  C17 UNL     1       5.031   0.228  -0.115  1.00  0.00     0.127 A 
BRANCH  18  20
HETATM   20  C13 UNL     1       7.569   0.125  -0.400  1.00  0.00     0.123 C 
HETATM   21  C14 UNL     1       7.741  -0.194   1.100  1.00  0.00     0.050 C 
HETATM   22  C15 UNL     1       7.995   1.575  -0.671  1.00  0.00     0.050 C 
BRANCH  20  23
HETATM   23  C16 UNL     1       8.532  -0.827  -1.137  1.00  0.00     0.224 C 
HETATM   24  N6  UNL     1       8.095  -2.100  -1.394  1.00  0.00    -0.270 NA
HETATM   25  H14 UNL     1       8.727  -2.644  -1.960  1.00  0.00     0.127 HD
HETATM   26  H15 UNL     1       7.118  -2.172  -1.690  1.00  0.00     0.127 HD
HETATM   27  O1  UNL     1       9.702  -0.542  -1.386  1.00  0.00    -0.277 OA
ENDBRANCH  20  23
ENDBRANCH  18  20
ENDBRANCH   9  15
BRANCH   1  28
HETATM   28  C3  UNL     1      -5.127  -0.077  -0.745  1.00  0.00     0.178 A 
HETATM   29  N1  UNL     1      -5.109  -0.294  -2.049  1.00  0.00    -0.210 NA
HETATM   30  C2  UNL     1      -6.425  -0.341  -2.398  1.00  0.00     0.144 A 
HETATM   31  C1  UNL     1      -6.867  -0.578  -3.783  1.00  0.00     0.095 C 
HETATM   32  N8  UNL     1      -7.280  -0.172  -1.386  1.00  0.00    -0.155 NA
HETATM   33  N7  UNL     1      -6.438  -0.038  -0.336  1.00  0.00    -0.244 N 
BRANCH  33  34
HETATM   34  C22 UNL     1      -6.985   0.110   1.002  1.00  0.00     0.104 C 
HETATM   35  C23 UNL     1      -8.279  -0.687   1.221  1.00  0.00     0.034 C 
HETATM   36  C24 UNL     1      -7.205   1.583   1.341  1.00  0.00     0.034 C 
ENDBRANCH  33  34
ENDBRANCH   1  28
TORSDOF 5
