REMARK  6 active torsions:
REMARK  status: ('A' for Active; 'I' for Inactive)
REMARK    1  A    between atoms: C2_2  and  C3_3 
REMARK    2  A    between atoms: C3_3  and  N1_4 
REMARK    3  A    between atoms: C3_3  and  C20_25 
REMARK    4  A    between atoms: N1_4  and  C4_5 
REMARK    5  A    between atoms: C9_11  and  C10_12 
REMARK    6  A    between atoms: C13_15  and  O1_16 
ROOT
HETATM    1  C4  UNL     1       1.566   0.375   1.213  1.00  0.00     0.129 A 
HETATM    2  C5  UNL     1       1.355   0.657   2.512  1.00  0.00     0.077 A 
HETATM    3  C6  UNL     1      -0.054   0.669   3.002  1.00  0.00     0.036 A 
HETATM    4  C7  UNL     1      -0.277   1.046   4.445  1.00  0.00     0.070 C 
HETATM    5  N2  UNL     1      -1.098   0.408   2.275  1.00  0.00    -0.233 NA
HETATM    6  C8  UNL     1      -0.871   0.113   0.959  1.00  0.00     0.166 A 
HETATM    7  C9  UNL     1      -1.736  -0.208  -0.068  1.00  0.00     0.049 A 
HETATM    8  C18 UNL     1      -0.924  -0.343  -1.214  1.00  0.00     0.066 A 
HETATM    9  C19 UNL     1      -1.350  -0.617  -2.608  1.00  0.00     0.073 C 
HETATM   10  N3  UNL     1       0.371  -0.182  -0.933  1.00  0.00    -0.168 NA
HETATM   11  N4  UNL     1       0.420   0.100   0.404  1.00  0.00    -0.198 N 
ENDROOT
BRANCH   1  12
HETATM   12  N1  UNL     1       2.865   0.353   0.703  1.00  0.00    -0.362 N 
HETATM   13  H7  UNL     1       3.612   0.632   1.340  1.00  0.00     0.162 HD
BRANCH  12  14
HETATM   14  C3  UNL     1       3.336   0.059  -0.659  1.00  0.00     0.162 C 
BRANCH  14  15
HETATM   15  C2  UNL     1       3.248   1.326  -1.540  1.00  0.00     0.029 C 
HETATM   16  C1  UNL     1       4.055   2.520  -1.035  1.00  0.00     0.007 C 
ENDBRANCH  14  15
BRANCH  14  17
HETATM   17  C20 UNL     1       4.738  -0.493  -0.685  1.00  0.00     0.195 A 
HETATM   18  N5  UNL     1       5.789  -0.154   0.035  1.00  0.00    -0.207 NA
HETATM   19  C21 UNL     1       6.747  -1.012  -0.436  1.00  0.00     0.152 A 
HETATM   20  C22 UNL     1       8.131  -1.009   0.076  1.00  0.00     0.096 C 
HETATM   21  N6  UNL     1       6.332  -1.849  -1.397  1.00  0.00    -0.112 NA
HETATM   22  O2  UNL     1       4.988  -1.506  -1.566  1.00  0.00    -0.194 OA
ENDBRANCH  14  17
ENDBRANCH  12  14
ENDBRANCH   1  12
BRANCH   7  23
HETATM   23  C10 UNL     1      -3.175  -0.303   0.078  1.00  0.00    -0.014 A 
HETATM   24  C11 UNL     1      -3.924   0.881   0.132  1.00  0.00     0.016 A 
HETATM   25  C12 UNL     1      -5.317   0.842   0.249  1.00  0.00     0.037 A 
HETATM   26  C13 UNL     1      -5.977  -0.383   0.313  1.00  0.00     0.068 A 
HETATM   27  C15 UNL     1      -5.232  -1.565   0.260  1.00  0.00     0.044 A 
HETATM   28  C16 UNL     1      -3.830  -1.546   0.146  1.00  0.00    -0.048 A 
HETATM   29  C17 UNL     1      -3.078  -2.848   0.140  1.00  0.00     0.049 C 
BRANCH  26  30
HETATM   30  O1  UNL     1      -7.328  -0.565   0.428  1.00  0.00    -0.356 OA
HETATM   31  C14 UNL     1      -8.121   0.607   0.575  1.00  0.00     0.210 C 
ENDBRANCH  26  30
ENDBRANCH   7  23
TORSDOF 6
