MODEL 1
REMARK VINA RESULT:     -10.3      0.000      0.000
REMARK  7 active torsions:
REMARK  status: ('A' for Active; 'I' for Inactive)
REMARK    1  A    between atoms: C3_4  and  C4_5 
REMARK    2  A    between atoms: C7_8  and  S1_9 
REMARK    3  A    between atoms: S1_9  and  N2_12 
REMARK    4  A    between atoms: C10_15  and  C11_16 
REMARK    5  A    between atoms: C12_17  and  C13_18 
REMARK       I    between atoms: C13_18  and  N3_20 
REMARK    6  A    between atoms: N3_20  and  C14_21 
REMARK    7  A    between atoms: C19_26  and  N4_27 
ROOT
HETATM    1  N2  UNL     1      54.999  32.793  93.963  1.00  0.00    -0.257 N 
HETATM    2  C8  UNL     1      56.068  33.465  94.493  1.00  0.00     0.109 A 
HETATM    3  C9  UNL     1      56.644  32.633  95.431  1.00  0.00     0.031 A 
HETATM    4  C10 UNL     1      55.873  31.437  95.480  1.00  0.00    -0.018 A 
HETATM    5  C20 UNL     1      54.842  31.574  94.572  1.00  0.00     0.120 A 
ENDROOT
BRANCH   1   6
HETATM    6  S1  UNL     1      53.869  33.483  92.893  1.00  0.00     0.268 S 
HETATM    7  O1  UNL     1      53.324  34.638  93.581  1.00  0.00    -0.200 OA
HETATM    8  O2  UNL     1      53.040  32.385  92.435  1.00  0.00    -0.200 OA
BRANCH   6   9
HETATM    9  C7  UNL     1      54.877  34.044  91.548  1.00  0.00     0.080 A 
HETATM   10  C6  UNL     1      54.526  33.721  90.236  1.00  0.00     0.026 A 
HETATM   11  C5  UNL     1      55.324  34.169  89.180  1.00  0.00     0.014 A 
HETATM   12  C4  UNL     1      56.469  34.943  89.423  1.00  0.00    -0.023 A 
HETATM   13  C22 UNL     1      56.796  35.271  90.748  1.00  0.00     0.014 A 
HETATM   14  C21 UNL     1      56.002  34.828  91.810  1.00  0.00     0.026 A 
BRANCH  12  15
HETATM   15  C3  UNL     1      57.285  35.403  88.313  1.00  0.00     0.010 A 
HETATM   16  C2  UNL     1      56.992  35.221  86.976  1.00  0.00     0.125 A 
HETATM   17  N1  UNL     1      58.000  35.820  86.275  1.00  0.00    -0.285 N 
HETATM   18  C1  UNL     1      58.135  35.896  84.842  1.00  0.00     0.179 C 
HETATM   19  N5  UNL     1      58.935  36.384  87.059  1.00  0.00    -0.185 NA
HETATM   20  C23 UNL     1      58.498  36.133  88.296  1.00  0.00     0.152 A 
ENDBRANCH  12  15
ENDBRANCH   6   9
ENDBRANCH   1   6
BRANCH   4  21
HETATM   21  C11 UNL     1      56.127  30.318  96.330  1.00  0.00     0.018 C 
HETATM   22  C12 UNL     1      55.674  29.068  96.146  1.00  0.00     0.075 C 
BRANCH  22  23
HETATM   23  C13 UNL     1      56.025  27.998  97.122  1.00  0.00     0.245 C 
HETATM   24  O3  UNL     1      57.145  27.932  97.613  1.00  0.00    -0.268 OA
HETATM   25  N3  UNL     1      54.960  27.166  97.369  1.00  0.00    -0.322 N 
HETATM   26  H11 UNL     1      54.077  27.321  96.892  1.00  0.00     0.169 HD
BRANCH  25  27
HETATM   27  C14 UNL     1      54.919  26.028  98.202  1.00  0.00     0.056 A 
HETATM   28  C15 UNL     1      54.887  26.073  99.596  1.00  0.00     0.031 A 
HETATM   29  C16 UNL     1      54.847  24.886 100.332  1.00  0.00     0.002 A 
HETATM   30  C17 UNL     1      54.824  23.654  99.680  1.00  0.00     0.002 A 
HETATM   31  C18 UNL     1      54.850  23.601  98.286  1.00  0.00     0.025 A 
HETATM   32  C19 UNL     1      54.938  24.781  97.540  1.00  0.00     0.033 A 
BRANCH  32  33
HETATM   33  N4  UNL     1      54.802  24.738  96.124  1.00  0.00    -0.301 NA
HETATM   34  H16 UNL     1      55.717  24.783  95.676  1.00  0.00     0.124 HD
HETATM   35  H17 UNL     1      54.366  23.851  95.869  1.00  0.00     0.124 HD
ENDBRANCH  32  33
ENDBRANCH  25  27
ENDBRANCH  22  23
ENDBRANCH   4  21
TORSDOF 7
ENDMDL
MODEL 2
REMARK VINA RESULT:     -10.2      2.660      3.675
REMARK  7 active torsions:
REMARK  status: ('A' for Active; 'I' for Inactive)
REMARK    1  A    between atoms: C3_4  and  C4_5 
REMARK    2  A    between atoms: C7_8  and  S1_9 
REMARK    3  A    between atoms: S1_9  and  N2_12 
REMARK    4  A    between atoms: C10_15  and  C11_16 
REMARK    5  A    between atoms: C12_17  and  C13_18 
REMARK       I    between atoms: C13_18  and  N3_20 
REMARK    6  A    between atoms: N3_20  and  C14_21 
REMARK    7  A    between atoms: C19_26  and  N4_27 
ROOT
HETATM    1  N2  UNL     1      53.807  32.549  94.185  1.00  0.00    -0.257 N 
HETATM    2  C8  UNL     1      52.793  32.769  95.080  1.00  0.00     0.109 A 
HETATM    3  C9  UNL     1      52.941  31.843  96.093  1.00  0.00     0.031 A 
HETATM    4  C10 UNL     1      54.064  31.029  95.774  1.00  0.00    -0.018 A 
HETATM    5  C20 UNL     1      54.569  31.476  94.569  1.00  0.00     0.120 A 
ENDROOT
BRANCH   1   6
HETATM    6  S1  UNL     1      53.936  33.327  92.677  1.00  0.00     0.268 S 
HETATM    7  O1  UNL     1      52.856  34.295  92.634  1.00  0.00    -0.200 OA
HETATM    8  O2  UNL     1      54.072  32.267  91.697  1.00  0.00    -0.200 OA
BRANCH   6   9
HETATM    9  C7  UNL     1      55.475  34.197  92.802  1.00  0.00     0.080 A 
HETATM   10  C6  UNL     1      56.196  34.164  93.997  1.00  0.00     0.026 A 
HETATM   11  C5  UNL     1      57.409  34.851  94.089  1.00  0.00     0.014 A 
HETATM   12  C4  UNL     1      57.913  35.568  92.993  1.00  0.00    -0.023 A 
HETATM   13  C22 UNL     1      57.182  35.575  91.795  1.00  0.00     0.014 A 
HETATM   14  C21 UNL     1      55.967  34.890  91.694  1.00  0.00     0.026 A 
BRANCH  12  15
HETATM   15  C3  UNL     1      59.178  36.273  93.104  1.00  0.00     0.010 A 
HETATM   16  C2  UNL     1      59.587  37.015  94.194  1.00  0.00     0.125 A 
HETATM   17  N1  UNL     1      60.833  37.485  93.895  1.00  0.00    -0.285 N 
HETATM   18  C1  UNL     1      61.673  38.310  94.728  1.00  0.00     0.179 C 
HETATM   19  N5  UNL     1      61.274  37.104  92.684  1.00  0.00    -0.185 NA
HETATM   20  C23 UNL     1      60.268  36.365  92.206  1.00  0.00     0.152 A 
ENDBRANCH  12  15
ENDBRANCH   6   9
ENDBRANCH   1   6
BRANCH   4  21
HETATM   21  C11 UNL     1      54.554  29.943  96.560  1.00  0.00     0.018 C 
HETATM   22  C12 UNL     1      55.475  29.043  96.178  1.00  0.00     0.075 C 
BRANCH  22  23
HETATM   23  C13 UNL     1      55.889  27.960  97.114  1.00  0.00     0.245 C 
HETATM   24  O3  UNL     1      57.036  27.893  97.537  1.00  0.00    -0.268 OA
HETATM   25  N3  UNL     1      54.845  27.116  97.409  1.00  0.00    -0.322 N 
HETATM   26  H11 UNL     1      53.935  27.274  96.988  1.00  0.00     0.169 HD
BRANCH  25  27
HETATM   27  C14 UNL     1      54.860  25.965  98.224  1.00  0.00     0.056 A 
HETATM   28  C15 UNL     1      54.859  25.986  99.620  1.00  0.00     0.031 A 
HETATM   29  C16 UNL     1      54.873  24.787 100.336  1.00  0.00     0.002 A 
HETATM   30  C17 UNL     1      54.876  23.566  99.664  1.00  0.00     0.002 A 
HETATM   31  C18 UNL     1      54.872  23.536  98.269  1.00  0.00     0.025 A 
HETATM   32  C19 UNL     1      54.905  24.729  97.541  1.00  0.00     0.033 A 
BRANCH  32  33
HETATM   33  N4  UNL     1      54.739  24.704  96.128  1.00  0.00    -0.301 NA
HETATM   34  H16 UNL     1      53.928  25.258  95.854  1.00  0.00     0.124 HD
HETATM   35  H17 UNL     1      55.567  25.118  95.699  1.00  0.00     0.124 HD
ENDBRANCH  32  33
ENDBRANCH  25  27
ENDBRANCH  22  23
ENDBRANCH   4  21
TORSDOF 7
ENDMDL
MODEL 3
REMARK VINA RESULT:     -10.0      2.526     11.879
REMARK  7 active torsions:
REMARK  status: ('A' for Active; 'I' for Inactive)
REMARK    1  A    between atoms: C3_4  and  C4_5 
REMARK    2  A    between atoms: C7_8  and  S1_9 
REMARK    3  A    between atoms: S1_9  and  N2_12 
REMARK    4  A    between atoms: C10_15  and  C11_16 
REMARK    5  A    between atoms: C12_17  and  C13_18 
REMARK       I    between atoms: C13_18  and  N3_20 
REMARK    6  A    between atoms: N3_20  and  C14_21 
REMARK    7  A    between atoms: C19_26  and  N4_27 
ROOT
HETATM    1  N2  UNL     1      55.942  31.073  97.564  1.00  0.00    -0.257 N 
HETATM    2  C8  UNL     1      54.572  31.070  97.588  1.00  0.00     0.109 A 
HETATM    3  C9  UNL     1      54.147  31.793  96.492  1.00  0.00     0.031 A 
HETATM    4  C10 UNL     1      55.304  32.265  95.810  1.00  0.00    -0.018 A 
HETATM    5  C20 UNL     1      56.406  31.822  96.512  1.00  0.00     0.120 A 
ENDROOT
BRANCH   1   6
HETATM    6  S1  UNL     1      56.923  30.460  98.812  1.00  0.00     0.268 S 
HETATM    7  O1  UNL     1      56.561  31.204 100.004  1.00  0.00    -0.200 OA
HETATM    8  O2  UNL     1      58.273  30.447  98.282  1.00  0.00    -0.200 OA
BRANCH   6   9
HETATM    9  C7  UNL     1      56.356  28.791  98.989  1.00  0.00     0.080 A 
HETATM   10  C6  UNL     1      55.734  28.392 100.174  1.00  0.00     0.026 A 
HETATM   11  C5  UNL     1      55.288  27.074 100.307  1.00  0.00     0.014 A 
HETATM   12  C4  UNL     1      55.452  26.151  99.262  1.00  0.00    -0.023 A 
HETATM   13  C22 UNL     1      56.065  26.577  98.073  1.00  0.00     0.014 A 
HETATM   14  C21 UNL     1      56.513  27.893  97.931  1.00  0.00     0.026 A 
BRANCH  12  15
HETATM   15  C3  UNL     1      54.979  24.787  99.415  1.00  0.00     0.010 A 
HETATM   16  C2  UNL     1      54.616  23.945  98.382  1.00  0.00     0.125 A 
HETATM   17  N1  UNL     1      54.255  22.761  98.958  1.00  0.00    -0.285 N 
HETATM   18  C1  UNL     1      53.803  21.569  98.283  1.00  0.00     0.179 C 
HETATM   19  N5  UNL     1      54.356  22.764 100.298  1.00  0.00    -0.185 NA
HETATM   20  C23 UNL     1      54.798  23.994 100.574  1.00  0.00     0.152 A 
ENDBRANCH  12  15
ENDBRANCH   6   9
ENDBRANCH   1   6
BRANCH   4  21
HETATM   21  C11 UNL     1      55.303  33.063  94.626  1.00  0.00     0.018 C 
HETATM   22  C12 UNL     1      54.364  33.052  93.666  1.00  0.00     0.075 C 
BRANCH  22  23
HETATM   23  C13 UNL     1      54.499  33.948  92.483  1.00  0.00     0.245 C 
HETATM   24  O3  UNL     1      53.958  35.045  92.455  1.00  0.00    -0.268 OA
HETATM   25  N3  UNL     1      55.281  33.382  91.505  1.00  0.00    -0.322 N 
HETATM   26  H11 UNL     1      55.673  32.456  91.644  1.00  0.00     0.169 HD
BRANCH  25  27
HETATM   27  C14 UNL     1      55.605  33.909  90.237  1.00  0.00     0.056 A 
HETATM   28  C15 UNL     1      54.666  34.334  89.296  1.00  0.00     0.031 A 
HETATM   29  C16 UNL     1      55.091  34.843  88.066  1.00  0.00     0.002 A 
HETATM   30  C17 UNL     1      56.451  34.942  87.778  1.00  0.00     0.002 A 
HETATM   31  C18 UNL     1      57.396  34.524  88.715  1.00  0.00     0.025 A 
HETATM   32  C19 UNL     1      56.983  33.970  89.931  1.00  0.00     0.033 A 
BRANCH  32  33
HETATM   33  N4  UNL     1      57.939  33.694  90.948  1.00  0.00    -0.301 NA
HETATM   34  H16 UNL     1      58.731  34.332  90.876  1.00  0.00     0.124 HD
HETATM   35  H17 UNL     1      57.494  33.839  91.856  1.00  0.00     0.124 HD
ENDBRANCH  32  33
ENDBRANCH  25  27
ENDBRANCH  22  23
ENDBRANCH   4  21
TORSDOF 7
ENDMDL
MODEL 4
REMARK VINA RESULT:     -10.0      3.020     11.581
REMARK  7 active torsions:
REMARK  status: ('A' for Active; 'I' for Inactive)
REMARK    1  A    between atoms: C3_4  and  C4_5 
REMARK    2  A    between atoms: C7_8  and  S1_9 
REMARK    3  A    between atoms: S1_9  and  N2_12 
REMARK    4  A    between atoms: C10_15  and  C11_16 
REMARK    5  A    between atoms: C12_17  and  C13_18 
REMARK       I    between atoms: C13_18  and  N3_20 
REMARK    6  A    between atoms: N3_20  and  C14_21 
REMARK    7  A    between atoms: C19_26  and  N4_27 
ROOT
HETATM    1  N2  UNL     1      57.779  31.455  98.701  1.00  0.00    -0.257 N 
HETATM    2  C8  UNL     1      58.928  31.472  97.956  1.00  0.00     0.109 A 
HETATM    3  C9  UNL     1      58.584  31.907  96.692  1.00  0.00     0.031 A 
HETATM    4  C10 UNL     1      57.177  32.128  96.679  1.00  0.00    -0.018 A 
HETATM    5  C20 UNL     1      56.699  31.816  97.936  1.00  0.00     0.120 A 
ENDROOT
BRANCH   1   6
HETATM    6  S1  UNL     1      57.668  30.817 100.275  1.00  0.00     0.268 S 
HETATM    7  O1  UNL     1      56.733  31.669 100.985  1.00  0.00    -0.200 OA
HETATM    8  O2  UNL     1      59.036  30.622 100.718  1.00  0.00    -0.200 OA
BRANCH   6   9
HETATM    9  C7  UNL     1      56.915  29.234 100.018  1.00  0.00     0.080 A 
HETATM   10  C6  UNL     1      55.902  28.801 100.876  1.00  0.00     0.026 A 
HETATM   11  C5  UNL     1      55.310  27.552 100.667  1.00  0.00     0.014 A 
HETATM   12  C4  UNL     1      55.718  26.733  99.602  1.00  0.00    -0.023 A 
HETATM   13  C22 UNL     1      56.726  27.194  98.742  1.00  0.00     0.014 A 
HETATM   14  C21 UNL     1      57.322  28.443  98.943  1.00  0.00     0.026 A 
BRANCH  12  15
HETATM   15  C3  UNL     1      55.089  25.440  99.397  1.00  0.00     0.010 A 
HETATM   16  C2  UNL     1      54.741  24.906  98.172  1.00  0.00     0.125 A 
HETATM   17  N1  UNL     1      54.202  23.677  98.427  1.00  0.00    -0.285 N 
HETATM   18  C1  UNL     1      53.693  22.735  97.461  1.00  0.00     0.179 C 
HETATM   19  N5  UNL     1      54.172  23.366  99.734  1.00  0.00    -0.185 NA
HETATM   20  C23 UNL     1      54.714  24.437 100.322  1.00  0.00     0.152 A 
ENDBRANCH  12  15
ENDBRANCH   6   9
ENDBRANCH   1   6
BRANCH   4  21
HETATM   21  C11 UNL     1      56.417  32.576  95.558  1.00  0.00     0.018 C 
HETATM   22  C12 UNL     1      56.701  33.635  94.782  1.00  0.00     0.075 C 
BRANCH  22  23
HETATM   23  C13 UNL     1      55.809  33.981  93.640  1.00  0.00     0.245 C 
HETATM   24  O3  UNL     1      54.610  34.165  93.805  1.00  0.00    -0.268 OA
HETATM   25  N3  UNL     1      56.506  34.060  92.458  1.00  0.00    -0.322 N 
HETATM   26  H11 UNL     1      57.504  33.879  92.447  1.00  0.00     0.169 HD
BRANCH  25  27
HETATM   27  C14 UNL     1      56.002  34.327  91.167  1.00  0.00     0.056 A 
HETATM   28  C15 UNL     1      56.420  35.387  90.362  1.00  0.00     0.031 A 
HETATM   29  C16 UNL     1      55.859  35.565  89.094  1.00  0.00     0.002 A 
HETATM   30  C17 UNL     1      54.891  34.680  88.624  1.00  0.00     0.002 A 
HETATM   31  C18 UNL     1      54.471  33.615  89.421  1.00  0.00     0.025 A 
HETATM   32  C19 UNL     1      54.992  33.454  90.709  1.00  0.00     0.033 A 
BRANCH  32  33
HETATM   33  N4  UNL     1      54.687  32.282  91.457  1.00  0.00    -0.301 NA
HETATM   34  H16 UNL     1      53.925  31.767  91.019  1.00  0.00     0.124 HD
HETATM   35  H17 UNL     1      55.513  31.683  91.468  1.00  0.00     0.124 HD
ENDBRANCH  32  33
ENDBRANCH  25  27
ENDBRANCH  22  23
ENDBRANCH   4  21
TORSDOF 7
ENDMDL
MODEL 5
REMARK VINA RESULT:     -10.0      4.477     11.989
REMARK  7 active torsions:
REMARK  status: ('A' for Active; 'I' for Inactive)
REMARK    1  A    between atoms: C3_4  and  C4_5 
REMARK    2  A    between atoms: C7_8  and  S1_9 
REMARK    3  A    between atoms: S1_9  and  N2_12 
REMARK    4  A    between atoms: C10_15  and  C11_16 
REMARK    5  A    between atoms: C12_17  and  C13_18 
REMARK       I    between atoms: C13_18  and  N3_20 
REMARK    6  A    between atoms: N3_20  and  C14_21 
REMARK    7  A    between atoms: C19_26  and  N4_27 
ROOT
HETATM    1  N2  UNL     1      55.839  29.745  97.060  1.00  0.00    -0.257 N 
HETATM    2  C8  UNL     1      54.831  30.429  97.688  1.00  0.00     0.109 A 
HETATM    3  C9  UNL     1      54.499  31.494  96.876  1.00  0.00     0.031 A 
HETATM    4  C10 UNL     1      55.358  31.459  95.742  1.00  0.00    -0.018 A 
HETATM    5  C20 UNL     1      56.197  30.373  95.894  1.00  0.00     0.120 A 
ENDROOT
BRANCH   1   6
HETATM    6  S1  UNL     1      56.703  28.457  97.760  1.00  0.00     0.268 S 
HETATM    7  O1  UNL     1      57.948  28.364  97.020  1.00  0.00    -0.200 OA
HETATM    8  O2  UNL     1      55.764  27.355  97.847  1.00  0.00    -0.200 OA
BRANCH   6   9
HETATM    9  C7  UNL     1      57.054  29.046  99.393  1.00  0.00     0.080 A 
HETATM   10  C6  UNL     1      56.508  28.392 100.499  1.00  0.00     0.026 A 
HETATM   11  C5  UNL     1      56.791  28.860 101.785  1.00  0.00     0.014 A 
HETATM   12  C4  UNL     1      57.620  29.976 101.977  1.00  0.00    -0.023 A 
HETATM   13  C22 UNL     1      58.172  30.611 100.853  1.00  0.00     0.014 A 
HETATM   14  C21 UNL     1      57.896  30.147  99.563  1.00  0.00     0.026 A 
BRANCH  12  15
HETATM   15  C3  UNL     1      57.906  30.448 103.320  1.00  0.00     0.010 A 
HETATM   16  C2  UNL     1      58.142  31.762 103.673  1.00  0.00     0.125 A 
HETATM   17  N1  UNL     1      58.346  31.768 105.023  1.00  0.00    -0.285 N 
HETATM   18  C1  UNL     1      58.626  32.913 105.854  1.00  0.00     0.179 C 
HETATM   19  N5  UNL     1      58.259  30.549 105.584  1.00  0.00    -0.185 NA
HETATM   20  C23 UNL     1      57.990  29.749 104.548  1.00  0.00     0.152 A 
ENDBRANCH  12  15
ENDBRANCH   6   9
ENDBRANCH   1   6
BRANCH   4  21
HETATM   21  C11 UNL     1      55.348  32.392  94.662  1.00  0.00     0.018 C 
HETATM   22  C12 UNL     1      54.407  32.488  93.709  1.00  0.00     0.075 C 
BRANCH  22  23
HETATM   23  C13 UNL     1      54.533  33.520  92.641  1.00  0.00     0.245 C 
HETATM   24  O3  UNL     1      54.072  34.644  92.790  1.00  0.00    -0.268 OA
HETATM   25  N3  UNL     1      55.208  33.037  91.546  1.00  0.00    -0.322 N 
HETATM   26  H11 UNL     1      55.538  32.077  91.539  1.00  0.00     0.169 HD
BRANCH  25  27
HETATM   27  C14 UNL     1      55.489  33.703  90.333  1.00  0.00     0.056 A 
HETATM   28  C15 UNL     1      54.517  34.185  89.455  1.00  0.00     0.031 A 
HETATM   29  C16 UNL     1      54.900  34.834  88.278  1.00  0.00     0.002 A 
HETATM   30  C17 UNL     1      56.250  35.014  87.982  1.00  0.00     0.002 A 
HETATM   31  C18 UNL     1      57.227  34.540  88.858  1.00  0.00     0.025 A 
HETATM   32  C19 UNL     1      56.857  33.848  90.015  1.00  0.00     0.033 A 
BRANCH  32  33
HETATM   33  N4  UNL     1      57.841  33.508  90.985  1.00  0.00    -0.301 NA
HETATM   34  H16 UNL     1      57.408  33.353  91.894  1.00  0.00     0.124 HD
HETATM   35  H17 UNL     1      58.293  32.640  90.694  1.00  0.00     0.124 HD
ENDBRANCH  32  33
ENDBRANCH  25  27
ENDBRANCH  22  23
ENDBRANCH   4  21
TORSDOF 7
ENDMDL
MODEL 6
REMARK VINA RESULT:      -9.8      4.525      7.540
REMARK  7 active torsions:
REMARK  status: ('A' for Active; 'I' for Inactive)
REMARK    1  A    between atoms: C3_4  and  C4_5 
REMARK    2  A    between atoms: C7_8  and  S1_9 
REMARK    3  A    between atoms: S1_9  and  N2_12 
REMARK    4  A    between atoms: C10_15  and  C11_16 
REMARK    5  A    between atoms: C12_17  and  C13_18 
REMARK       I    between atoms: C13_18  and  N3_20 
REMARK    6  A    between atoms: N3_20  and  C14_21 
REMARK    7  A    between atoms: C19_26  and  N4_27 
ROOT
HETATM    1  N2  UNL     1      58.280  36.869  88.899  1.00  0.00    -0.257 N 
HETATM    2  C8  UNL     1      57.362  37.781  89.350  1.00  0.00     0.109 A 
HETATM    3  C9  UNL     1      56.493  37.103  90.180  1.00  0.00     0.031 A 
HETATM    4  C10 UNL     1      56.891  35.736  90.200  1.00  0.00    -0.018 A 
HETATM    5  C20 UNL     1      57.992  35.616  89.376  1.00  0.00     0.120 A 
ENDROOT
BRANCH   1   6
HETATM    6  S1  UNL     1      59.448  37.197  87.706  1.00  0.00     0.268 S 
HETATM    7  O1  UNL     1      60.423  36.125  87.798  1.00  0.00    -0.200 OA
HETATM    8  O2  UNL     1      59.806  38.592  87.877  1.00  0.00    -0.200 OA
BRANCH   6   9
HETATM    9  C7  UNL     1      58.543  37.014  86.194  1.00  0.00     0.080 A 
HETATM   10  C6  UNL     1      58.309  35.740  85.675  1.00  0.00     0.026 A 
HETATM   11  C5  UNL     1      57.593  35.603  84.482  1.00  0.00     0.014 A 
HETATM   12  C4  UNL     1      57.103  36.730  83.805  1.00  0.00    -0.023 A 
HETATM   13  C22 UNL     1      57.335  38.002  84.352  1.00  0.00     0.014 A 
HETATM   14  C21 UNL     1      58.049  38.148  85.545  1.00  0.00     0.026 A 
BRANCH  12  15
HETATM   15  C3  UNL     1      56.357  36.569  82.569  1.00  0.00     0.010 A 
HETATM   16  C2  UNL     1      55.051  36.130  82.475  1.00  0.00     0.125 A 
HETATM   17  N1  UNL     1      54.735  36.145  81.146  1.00  0.00    -0.285 N 
HETATM   18  C1  UNL     1      53.477  35.773  80.549  1.00  0.00     0.179 C 
HETATM   19  N5  UNL     1      55.742  36.564  80.360  1.00  0.00    -0.185 NA
HETATM   20  C23 UNL     1      56.726  36.824  81.227  1.00  0.00     0.152 A 
ENDBRANCH  12  15
ENDBRANCH   6   9
ENDBRANCH   1   6
BRANCH   4  21
HETATM   21  C11 UNL     1      56.248  34.694  90.933  1.00  0.00     0.018 C 
HETATM   22  C12 UNL     1      54.982  34.277  90.767  1.00  0.00     0.075 C 
BRANCH  22  23
HETATM   23  C13 UNL     1      54.448  33.170  91.610  1.00  0.00     0.245 C 
HETATM   24  O3  UNL     1      53.931  32.182  91.104  1.00  0.00    -0.268 OA
HETATM   25  N3  UNL     1      54.625  33.421  92.949  1.00  0.00    -0.322 N 
HETATM   26  H11 UNL     1      55.065  34.286  93.247  1.00  0.00     0.169 HD
BRANCH  25  27
HETATM   27  C14 UNL     1      54.220  32.628  94.044  1.00  0.00     0.056 A 
HETATM   28  C15 UNL     1      54.943  31.544  94.542  1.00  0.00     0.031 A 
HETATM   29  C16 UNL     1      54.455  30.822  95.635  1.00  0.00     0.002 A 
HETATM   30  C17 UNL     1      53.254  31.188  96.239  1.00  0.00     0.002 A 
HETATM   31  C18 UNL     1      52.528  32.274  95.751  1.00  0.00     0.025 A 
HETATM   32  C19 UNL     1      52.982  32.975  94.629  1.00  0.00     0.033 A 
BRANCH  32  33
HETATM   33  N4  UNL     1      52.332  34.176  94.230  1.00  0.00    -0.301 NA
HETATM   34  H16 UNL     1      52.585  34.419  93.274  1.00  0.00     0.124 HD
HETATM   35  H17 UNL     1      51.323  34.023  94.264  1.00  0.00     0.124 HD
ENDBRANCH  32  33
ENDBRANCH  25  27
ENDBRANCH  22  23
ENDBRANCH   4  21
TORSDOF 7
ENDMDL
MODEL 7
REMARK VINA RESULT:      -9.5      2.595      3.267
REMARK  7 active torsions:
REMARK  status: ('A' for Active; 'I' for Inactive)
REMARK    1  A    between atoms: C3_4  and  C4_5 
REMARK    2  A    between atoms: C7_8  and  S1_9 
REMARK    3  A    between atoms: S1_9  and  N2_12 
REMARK    4  A    between atoms: C10_15  and  C11_16 
REMARK    5  A    between atoms: C12_17  and  C13_18 
REMARK       I    between atoms: C13_18  and  N3_20 
REMARK    6  A    between atoms: N3_20  and  C14_21 
REMARK    7  A    between atoms: C19_26  and  N4_27 
ROOT
HETATM    1  N2  UNL     1      57.761  32.889  96.401  1.00  0.00    -0.257 N 
HETATM    2  C8  UNL     1      56.564  32.640  95.783  1.00  0.00     0.109 A 
HETATM    3  C9  UNL     1      56.166  31.376  96.167  1.00  0.00     0.031 A 
HETATM    4  C10 UNL     1      57.176  30.844  97.018  1.00  0.00    -0.018 A 
HETATM    5  C20 UNL     1      58.168  31.799  97.127  1.00  0.00     0.120 A 
ENDROOT
BRANCH   1   6
HETATM    6  S1  UNL     1      58.732  34.252  96.092  1.00  0.00     0.268 S 
HETATM    7  O1  UNL     1      60.096  33.841  96.371  1.00  0.00    -0.200 OA
HETATM    8  O2  UNL     1      58.094  35.355  96.784  1.00  0.00    -0.200 OA
BRANCH   6   9
HETATM    9  C7  UNL     1      58.555  34.488  94.345  1.00  0.00     0.080 A 
HETATM   10  C6  UNL     1      57.722  35.499  93.863  1.00  0.00     0.026 A 
HETATM   11  C5  UNL     1      57.588  35.681  92.484  1.00  0.00     0.014 A 
HETATM   12  C4  UNL     1      58.284  34.863  91.580  1.00  0.00    -0.023 A 
HETATM   13  C22 UNL     1      59.129  33.862  92.085  1.00  0.00     0.014 A 
HETATM   14  C21 UNL     1      59.270  33.675  93.464  1.00  0.00     0.026 A 
BRANCH  12  15
HETATM   15  C3  UNL     1      58.136  35.068  90.150  1.00  0.00     0.010 A 
HETATM   16  C2  UNL     1      58.654  36.131  89.437  1.00  0.00     0.125 A 
HETATM   17  N1  UNL     1      58.303  35.928  88.133  1.00  0.00    -0.285 N 
HETATM   18  C1  UNL     1      58.620  36.771  87.007  1.00  0.00     0.179 C 
HETATM   19  N5  UNL     1      57.592  34.804  87.938  1.00  0.00    -0.185 NA
HETATM   20  C23 UNL     1      57.493  34.282  89.164  1.00  0.00     0.152 A 
ENDBRANCH  12  15
ENDBRANCH   6   9
ENDBRANCH   1   6
BRANCH   4  21
HETATM   21  C11 UNL     1      57.157  29.553  97.626  1.00  0.00     0.018 C 
HETATM   22  C12 UNL     1      56.338  29.157  98.615  1.00  0.00     0.075 C 
BRANCH  22  23
HETATM   23  C13 UNL     1      56.434  27.770  99.149  1.00  0.00     0.245 C 
HETATM   24  O3  UNL     1      57.405  27.409  99.803  1.00  0.00    -0.268 OA
HETATM   25  N3  UNL     1      55.331  27.020  98.817  1.00  0.00    -0.322 N 
HETATM   26  H11 UNL     1      54.589  27.433  98.261  1.00  0.00     0.169 HD
BRANCH  25  27
HETATM   27  C14 UNL     1      55.080  25.663  99.113  1.00  0.00     0.056 A 
HETATM   28  C15 UNL     1      54.745  25.181 100.378  1.00  0.00     0.031 A 
HETATM   29  C16 UNL     1      54.514  23.816 100.566  1.00  0.00     0.002 A 
HETATM   30  C17 UNL     1      54.604  22.933  99.492  1.00  0.00     0.002 A 
HETATM   31  C18 UNL     1      54.934  23.408  98.222  1.00  0.00     0.025 A 
HETATM   32  C19 UNL     1      55.213  24.765  98.031  1.00  0.00     0.033 A 
BRANCH  32  33
HETATM   33  N4  UNL     1      55.389  25.275  96.714  1.00  0.00    -0.301 NA
HETATM   34  H16 UNL     1      55.837  26.190  96.743  1.00  0.00     0.124 HD
HETATM   35  H17 UNL     1      55.998  24.637  96.200  1.00  0.00     0.124 HD
ENDBRANCH  32  33
ENDBRANCH  25  27
ENDBRANCH  22  23
ENDBRANCH   4  21
TORSDOF 7
ENDMDL
MODEL 8
REMARK VINA RESULT:      -9.2      6.535     13.108
REMARK  7 active torsions:
REMARK  status: ('A' for Active; 'I' for Inactive)
REMARK    1  A    between atoms: C3_4  and  C4_5 
REMARK    2  A    between atoms: C7_8  and  S1_9 
REMARK    3  A    between atoms: S1_9  and  N2_12 
REMARK    4  A    between atoms: C10_15  and  C11_16 
REMARK    5  A    between atoms: C12_17  and  C13_18 
REMARK       I    between atoms: C13_18  and  N3_20 
REMARK    6  A    between atoms: N3_20  and  C14_21 
REMARK    7  A    between atoms: C19_26  and  N4_27 
ROOT
HETATM    1  N2  UNL     1      58.190  37.031  86.076  1.00  0.00    -0.257 N 
HETATM    2  C8  UNL     1      57.888  38.132  85.319  1.00  0.00     0.109 A 
HETATM    3  C9  UNL     1      57.468  37.673  84.087  1.00  0.00     0.031 A 
HETATM    4  C10 UNL     1      57.549  36.252  84.104  1.00  0.00    -0.018 A 
HETATM    5  C20 UNL     1      58.024  35.881  85.346  1.00  0.00     0.120 A 
ENDROOT
BRANCH   1   6
HETATM    6  S1  UNL     1      58.922  37.096  87.611  1.00  0.00     0.268 S 
HETATM    7  O1  UNL     1      58.919  38.495  87.994  1.00  0.00    -0.200 OA
HETATM    8  O2  UNL     1      60.142  36.321  87.498  1.00  0.00    -0.200 OA
BRANCH   6   9
HETATM    9  C7  UNL     1      57.777  36.221  88.642  1.00  0.00     0.080 A 
HETATM   10  C6  UNL     1      57.712  34.828  88.579  1.00  0.00     0.026 A 
HETATM   11  C5  UNL     1      56.808  34.144  89.397  1.00  0.00     0.014 A 
HETATM   12  C4  UNL     1      55.970  34.840  90.282  1.00  0.00    -0.023 A 
HETATM   13  C22 UNL     1      56.062  36.239  90.341  1.00  0.00     0.014 A 
HETATM   14  C21 UNL     1      56.965  36.932  89.528  1.00  0.00     0.026 A 
BRANCH  12  15
HETATM   15  C3  UNL     1      55.039  34.113  91.127  1.00  0.00     0.010 A 
HETATM   16  C2  UNL     1      54.574  34.540  92.355  1.00  0.00     0.125 A 
HETATM   17  N1  UNL     1      53.712  33.577  92.796  1.00  0.00    -0.285 N 
HETATM   18  C1  UNL     1      52.970  33.576  94.033  1.00  0.00     0.179 C 
HETATM   19  N5  UNL     1      53.577  32.547  91.943  1.00  0.00    -0.185 NA
HETATM   20  C23 UNL     1      54.382  32.875  90.929  1.00  0.00     0.152 A 
ENDBRANCH  12  15
ENDBRANCH   6   9
ENDBRANCH   1   6
BRANCH   4  21
HETATM   21  C11 UNL     1      57.212  35.387  83.020  1.00  0.00     0.018 C 
HETATM   22  C12 UNL     1      57.026  35.757  81.742  1.00  0.00     0.075 C 
BRANCH  22  23
HETATM   23  C13 UNL     1      56.678  34.735  80.715  1.00  0.00     0.245 C 
HETATM   24  O3  UNL     1      57.372  34.576  79.719  1.00  0.00    -0.268 OA
HETATM   25  N3  UNL     1      55.537  34.047  81.051  1.00  0.00    -0.322 N 
HETATM   26  H11 UNL     1      55.042  34.276  81.908  1.00  0.00     0.169 HD
BRANCH  25  27
HETATM   27  C14 UNL     1      54.882  33.036  80.315  1.00  0.00     0.056 A 
HETATM   28  C15 UNL     1      54.216  33.247  79.107  1.00  0.00     0.031 A 
HETATM   29  C16 UNL     1      53.599  32.176  78.454  1.00  0.00     0.002 A 
HETATM   30  C17 UNL     1      53.655  30.894  78.998  1.00  0.00     0.002 A 
HETATM   31  C18 UNL     1      54.324  30.675  80.203  1.00  0.00     0.025 A 
HETATM   32  C19 UNL     1      54.905  31.746  80.889  1.00  0.00     0.033 A 
BRANCH  32  33
HETATM   33  N4  UNL     1      55.722  31.501  82.028  1.00  0.00    -0.301 NA
HETATM   34  H16 UNL     1      56.693  31.371  81.750  1.00  0.00     0.124 HD
HETATM   35  H17 UNL     1      55.671  32.315  82.642  1.00  0.00     0.124 HD
ENDBRANCH  32  33
ENDBRANCH  25  27
ENDBRANCH  22  23
ENDBRANCH   4  21
TORSDOF 7
ENDMDL
MODEL 9
REMARK VINA RESULT:      -9.0      2.539      3.007
REMARK  7 active torsions:
REMARK  status: ('A' for Active; 'I' for Inactive)
REMARK    1  A    between atoms: C3_4  and  C4_5 
REMARK    2  A    between atoms: C7_8  and  S1_9 
REMARK    3  A    between atoms: S1_9  and  N2_12 
REMARK    4  A    between atoms: C10_15  and  C11_16 
REMARK    5  A    between atoms: C12_17  and  C13_18 
REMARK       I    between atoms: C13_18  and  N3_20 
REMARK    6  A    between atoms: N3_20  and  C14_21 
REMARK    7  A    between atoms: C19_26  and  N4_27 
ROOT
HETATM    1  N2  UNL     1      57.897  34.451  94.341  1.00  0.00    -0.257 N 
HETATM    2  C8  UNL     1      56.593  34.191  94.009  1.00  0.00     0.109 A 
HETATM    3  C9  UNL     1      56.209  33.074  94.723  1.00  0.00     0.031 A 
HETATM    4  C10 UNL     1      57.332  32.639  95.482  1.00  0.00    -0.018 A 
HETATM    5  C20 UNL     1      58.375  33.500  95.206  1.00  0.00     0.120 A 
ENDROOT
BRANCH   1   6
HETATM    6  S1  UNL     1      58.862  35.626  93.578  1.00  0.00     0.268 S 
HETATM    7  O1  UNL     1      60.218  35.111  93.612  1.00  0.00    -0.200 OA
HETATM    8  O2  UNL     1      58.494  36.891  94.185  1.00  0.00    -0.200 OA
BRANCH   6   9
HETATM    9  C7  UNL     1      58.284  35.600  91.904  1.00  0.00     0.080 A 
HETATM   10  C6  UNL     1      57.764  36.762  91.331  1.00  0.00     0.026 A 
HETATM   11  C5  UNL     1      57.311  36.735  90.009  1.00  0.00     0.014 A 
HETATM   12  C4  UNL     1      57.380  35.556  89.250  1.00  0.00    -0.023 A 
HETATM   13  C22 UNL     1      57.921  34.403  89.839  1.00  0.00     0.014 A 
HETATM   14  C21 UNL     1      58.377  34.422  91.161  1.00  0.00     0.026 A 
BRANCH  12  15
HETATM   15  C3  UNL     1      56.908  35.547  87.877  1.00  0.00     0.010 A 
HETATM   16  C2  UNL     1      57.702  35.709  86.758  1.00  0.00     0.125 A 
HETATM   17  N1  UNL     1      56.871  35.614  85.679  1.00  0.00    -0.285 N 
HETATM   18  C1  UNL     1      57.238  35.715  84.288  1.00  0.00     0.179 C 
HETATM   19  N5  UNL     1      55.585  35.399  86.010  1.00  0.00    -0.185 NA
HETATM   20  C23 UNL     1      55.611  35.356  87.345  1.00  0.00     0.152 A 
ENDBRANCH  12  15
ENDBRANCH   6   9
ENDBRANCH   1   6
BRANCH   4  21
HETATM   21  C11 UNL     1      57.360  31.507  96.352  1.00  0.00     0.018 C 
HETATM   22  C12 UNL     1      56.325  30.697  96.627  1.00  0.00     0.075 C 
BRANCH  22  23
HETATM   23  C13 UNL     1      56.507  29.548  97.559  1.00  0.00     0.245 C 
HETATM   24  O3  UNL     1      57.623  29.200  97.924  1.00  0.00    -0.268 OA
HETATM   25  N3  UNL     1      55.304  28.991  97.919  1.00  0.00    -0.322 N 
HETATM   26  H11 UNL     1      54.440  29.367  97.542  1.00  0.00     0.169 HD
BRANCH  25  27
HETATM   27  C14 UNL     1      55.076  27.873  98.750  1.00  0.00     0.056 A 
HETATM   28  C15 UNL     1      54.986  27.931 100.141  1.00  0.00     0.031 A 
HETATM   29  C16 UNL     1      54.757  26.765 100.875  1.00  0.00     0.002 A 
HETATM   30  C17 UNL     1      54.604  25.542 100.223  1.00  0.00     0.002 A 
HETATM   31  C18 UNL     1      54.687  25.477  98.832  1.00  0.00     0.025 A 
HETATM   32  C19 UNL     1      54.963  26.630  98.090  1.00  0.00     0.033 A 
BRANCH  32  33
HETATM   33  N4  UNL     1      54.888  26.596  96.670  1.00  0.00    -0.301 NA
HETATM   34  H16 UNL     1      55.182  27.488  96.275  1.00  0.00     0.124 HD
HETATM   35  H17 UNL     1      55.523  25.872  96.331  1.00  0.00     0.124 HD
ENDBRANCH  32  33
ENDBRANCH  25  27
ENDBRANCH  22  23
ENDBRANCH   4  21
TORSDOF 7
ENDMDL
